new loadshape.storagecurve npts=96 interval=0.25 
        mult=(0, 0, 0, 0, 0, 0, 0, 0, 0, 0, 0, 0, 0, 0, 0, 0, 0, 0, 0, 0, 0, 0, 0, 0, 0, 0, 0, 0, -0.5, -0.5, -0.5, -0.5, -0.75, -0.75, -0.75, -0.75, -1, -1, -1, -1, -1, -1, -1, -1, -0.5, -0.5, -0.5, -0.5, -0.25, -0.25, -0.25, -0.25, 0, 0, 0, 0, 0, 0, 0, 0, 0, 0, 0, 0, 0.5, 0.5, 0.5, 0.5, 0.75, 0.75, 0.75, 0.75, 1, 1, 1, 1, 1, 1, 1, 1, 1, 1, 1, 1, 0, 0, 0, 0, 0, 0, 0, 0, 0, 0, 0, 0)
