new load.carga1.txt phases=3 conn=wye bus1=b kw=19.91 pf=0.84 kv=0.38 daily=default
