new load.carga1 phases=3 conn=wye bus1=c1 kw=50.55 pf=0.98 kv=0.38 daily=semana
new load.carga2 phases=3 conn=wye bus1=c2 kw=52.42 pf=0.88 kv=0.38 daily=semana
new load.carga3 phases=3 conn=wye bus1=c3 kw=58.34 pf=0.80 kv=0.38 daily=semana
new load.carga4 phases=3 conn=wye bus1=c4 kw=58.35 pf=0.97 kv=0.38 daily=semana
new load.carga5 phases=3 conn=wye bus1=c5 kw=57.72 pf=0.81 kv=0.38 daily=semana
new load.carga6 phases=3 conn=wye bus1=c6 kw=56.00 pf=0.88 kv=0.38 daily=semana
new load.carga7 phases=3 conn=wye bus1=c7 kw=58.13 pf=0.86 kv=0.38 daily=semana
new load.carga8 phases=3 conn=wye bus1=c8 kw=50.14 pf=0.96 kv=0.38 daily=semana
new load.carga9 phases=3 conn=wye bus1=c9 kw=53.10 pf=0.90 kv=0.38 daily=semana
new load.carga10 phases=3 conn=wye bus1=c10 kw=56.23 pf=0.86 kv=0.38 daily=semana
new load.carga11 phases=3 conn=wye bus1=c11 kw=53.66 pf=0.92 kv=0.38 daily=semana
new load.carga12 phases=3 conn=wye bus1=c12 kw=58.22 pf=0.92 kv=0.38 daily=semana
new load.carga13 phases=3 conn=wye bus1=c13 kw=57.22 pf=0.88 kv=0.38 daily=semana
new load.carga14 phases=3 conn=wye bus1=c14 kw=51.58 pf=0.92 kv=0.38 daily=semana
new load.carga15 phases=3 conn=wye bus1=c15 kw=57.50 pf=0.96 kv=0.38 daily=semana
new load.carga16 phases=3 conn=wye bus1=c16 kw=58.14 pf=0.82 kv=0.38 daily=semana
new load.carga17 phases=3 conn=wye bus1=c17 kw=50.90 pf=0.94 kv=0.38 daily=semana
new load.carga18 phases=3 conn=wye bus1=c18 kw=52.77 pf=0.94 kv=0.38 daily=semana
new load.carga19 phases=3 conn=wye bus1=c19 kw=57.34 pf=0.83 kv=0.38 daily=semana
new load.carga20 phases=3 conn=wye bus1=c20 kw=50.04 pf=0.83 kv=0.38 daily=semana
new load.carga21 phases=3 conn=wye bus1=c21 kw=50.60 pf=0.88 kv=0.38 daily=semana
new load.carga22 phases=3 conn=wye bus1=c22 kw=53.89 pf=0.87 kv=0.38 daily=semana
new load.carga23 phases=3 conn=wye bus1=c23 kw=52.45 pf=0.98 kv=0.38 daily=semana
new load.carga24 phases=3 conn=wye bus1=c24 kw=50.14 pf=0.82 kv=0.38 daily=semana
new load.carga25 phases=3 conn=wye bus1=c25 kw=55.28 pf=0.98 kv=0.38 daily=semana
new load.carga26 phases=3 conn=wye bus1=c26 kw=50.57 pf=0.90 kv=0.38 daily=semana
new load.carga27 phases=3 conn=wye bus1=c27 kw=57.01 pf=0.94 kv=0.38 daily=semana
new load.carga28 phases=3 conn=wye bus1=c28 kw=57.23 pf=0.90 kv=0.38 daily=semana
new load.carga29 phases=3 conn=wye bus1=c29 kw=59.32 pf=0.98 kv=0.38 daily=semana
new load.carga30 phases=3 conn=wye bus1=c30 kw=52.50 pf=0.97 kv=0.38 daily=semana
new load.carga31 phases=3 conn=wye bus1=c31 kw=51.42 pf=0.98 kv=0.38 daily=semana
new load.carga32 phases=3 conn=wye bus1=c32 kw=58.57 pf=0.91 kv=0.38 daily=semana
new load.carga33 phases=3 conn=wye bus1=c33 kw=50.84 pf=0.96 kv=0.38 daily=semana
new load.carga34 phases=3 conn=wye bus1=c34 kw=50.43 pf=0.92 kv=0.38 daily=semana
new load.carga35 phases=3 conn=wye bus1=c35 kw=56.27 pf=0.97 kv=0.38 daily=semana
new load.carga36 phases=3 conn=wye bus1=c36 kw=53.21 pf=0.97 kv=0.38 daily=semana
new load.carga37 phases=3 conn=wye bus1=c37 kw=52.33 pf=0.83 kv=0.38 daily=semana
new load.carga38 phases=3 conn=wye bus1=c38 kw=59.57 pf=0.93 kv=0.38 daily=semana
new load.carga39 phases=3 conn=wye bus1=c39 kw=54.98 pf=0.91 kv=0.38 daily=semana
new load.carga40 phases=3 conn=wye bus1=c40 kw=55.24 pf=0.83 kv=0.38 daily=semana
new load.carga41 phases=3 conn=wye bus1=c41 kw=55.49 pf=0.85 kv=0.38 daily=semana
new load.carga42 phases=3 conn=wye bus1=c42 kw=56.26 pf=1.00 kv=0.38 daily=semana
new load.carga43 phases=3 conn=wye bus1=c43 kw=53.13 pf=0.83 kv=0.38 daily=semana
new load.carga44 phases=3 conn=wye bus1=c44 kw=53.03 pf=0.88 kv=0.38 daily=semana
new load.carga45 phases=3 conn=wye bus1=c45 kw=50.12 pf=0.89 kv=0.38 daily=semana
new load.carga46 phases=3 conn=wye bus1=c46 kw=50.20 pf=0.85 kv=0.38 daily=semana
new load.carga47 phases=3 conn=wye bus1=c47 kw=50.46 pf=0.87 kv=0.38 daily=semana
new load.carga48 phases=3 conn=wye bus1=c48 kw=50.62 pf=0.88 kv=0.38 daily=semana
new load.carga49 phases=3 conn=wye bus1=c49 kw=57.85 pf=0.98 kv=0.38 daily=semana
new load.carga50 phases=3 conn=wye bus1=c50 kw=53.20 pf=0.83 kv=0.38 daily=semana
new load.carga51 phases=3 conn=wye bus1=c51 kw=53.79 pf=0.98 kv=0.38 daily=semana
new load.carga52 phases=3 conn=wye bus1=c52 kw=55.59 pf=0.84 kv=0.38 daily=semana
new load.carga53 phases=3 conn=wye bus1=c53 kw=59.30 pf=0.93 kv=0.38 daily=semana
new load.carga54 phases=3 conn=wye bus1=c54 kw=54.11 pf=0.95 kv=0.38 daily=semana
new load.carga55 phases=3 conn=wye bus1=c55 kw=53.53 pf=0.81 kv=0.38 daily=semana
new load.carga56 phases=3 conn=wye bus1=c56 kw=52.43 pf=0.90 kv=0.38 daily=semana
new load.carga57 phases=3 conn=wye bus1=c57 kw=56.67 pf=0.82 kv=0.38 daily=semana
new load.carga58 phases=3 conn=wye bus1=c58 kw=53.51 pf=0.84 kv=0.38 daily=semana
new load.carga59 phases=3 conn=wye bus1=c59 kw=50.28 pf=0.83 kv=0.38 daily=semana
new load.carga60 phases=3 conn=wye bus1=c60 kw=57.72 pf=0.99 kv=0.38 daily=semana
new load.carga61 phases=3 conn=wye bus1=c61 kw=53.88 pf=0.88 kv=0.38 daily=semana
new load.carga62 phases=3 conn=wye bus1=c62 kw=58.76 pf=0.96 kv=0.38 daily=semana
new load.carga63 phases=3 conn=wye bus1=c63 kw=56.07 pf=0.96 kv=0.38 daily=semana
new load.carga64 phases=3 conn=wye bus1=c64 kw=54.12 pf=0.88 kv=0.38 daily=semana
new load.carga65 phases=3 conn=wye bus1=c65 kw=52.38 pf=0.86 kv=0.38 daily=semana
new load.carga66 phases=3 conn=wye bus1=c66 kw=57.19 pf=0.91 kv=0.38 daily=semana
new load.carga67 phases=3 conn=wye bus1=c67 kw=50.84 pf=0.94 kv=0.38 daily=semana
new load.carga68 phases=3 conn=wye bus1=c68 kw=52.28 pf=0.86 kv=0.38 daily=semana
new load.carga69 phases=3 conn=wye bus1=c69 kw=58.38 pf=0.97 kv=0.38 daily=semana
new load.carga70 phases=3 conn=wye bus1=c70 kw=55.82 pf=0.93 kv=0.38 daily=semana
new load.carga71 phases=3 conn=wye bus1=c71 kw=58.72 pf=0.91 kv=0.38 daily=semana
new load.carga72 phases=3 conn=wye bus1=c72 kw=57.34 pf=0.93 kv=0.38 daily=semana
new load.carga73 phases=3 conn=wye bus1=c73 kw=59.77 pf=0.82 kv=0.38 daily=semana
new load.carga74 phases=3 conn=wye bus1=c74 kw=57.35 pf=0.81 kv=0.38 daily=semana
new load.carga75 phases=3 conn=wye bus1=c75 kw=58.15 pf=0.83 kv=0.38 daily=semana
new load.carga76 phases=3 conn=wye bus1=c76 kw=50.34 pf=0.82 kv=0.38 daily=semana
new load.carga77 phases=3 conn=wye bus1=c77 kw=57.47 pf=0.83 kv=0.38 daily=semana
new load.carga78 phases=3 conn=wye bus1=c78 kw=53.70 pf=0.82 kv=0.38 daily=semana
new load.carga79 phases=3 conn=wye bus1=c79 kw=55.62 pf=0.89 kv=0.38 daily=semana
new load.carga80 phases=3 conn=wye bus1=c80 kw=59.29 pf=0.81 kv=0.38 daily=semana
new load.carga81 phases=3 conn=wye bus1=c81 kw=50.03 pf=0.84 kv=0.38 daily=semana
new load.carga82 phases=3 conn=wye bus1=c82 kw=59.99 pf=0.86 kv=0.38 daily=semana
new load.carga83 phases=3 conn=wye bus1=c83 kw=58.42 pf=0.95 kv=0.38 daily=semana
new load.carga84 phases=3 conn=wye bus1=c84 kw=59.22 pf=0.95 kv=0.38 daily=semana
new load.carga85 phases=3 conn=wye bus1=c85 kw=54.45 pf=0.90 kv=0.38 daily=semana
new load.carga86 phases=3 conn=wye bus1=c86 kw=54.68 pf=0.91 kv=0.38 daily=semana
new load.carga87 phases=3 conn=wye bus1=c87 kw=59.68 pf=0.99 kv=0.38 daily=semana
new load.carga88 phases=3 conn=wye bus1=c88 kw=58.02 pf=0.91 kv=0.38 daily=semana
new load.carga89 phases=3 conn=wye bus1=c89 kw=59.40 pf=0.95 kv=0.38 daily=semana
new load.carga90 phases=3 conn=wye bus1=c90 kw=52.96 pf=0.87 kv=0.38 daily=semana
new load.carga91 phases=3 conn=wye bus1=c91 kw=53.32 pf=0.94 kv=0.38 daily=semana
new load.carga92 phases=3 conn=wye bus1=c92 kw=59.45 pf=0.94 kv=0.38 daily=semana
new load.carga93 phases=3 conn=wye bus1=c93 kw=54.02 pf=0.87 kv=0.38 daily=semana
new load.carga94 phases=3 conn=wye bus1=c94 kw=55.36 pf=0.86 kv=0.38 daily=semana
new load.carga95 phases=3 conn=wye bus1=c95 kw=59.46 pf=0.87 kv=0.38 daily=semana
new load.carga96 phases=3 conn=wye bus1=c96 kw=53.82 pf=0.95 kv=0.38 daily=semana
new load.carga97 phases=3 conn=wye bus1=c97 kw=53.30 pf=0.90 kv=0.38 daily=semana
new load.carga98 phases=3 conn=wye bus1=c98 kw=56.12 pf=0.82 kv=0.38 daily=semana
new load.carga99 phases=3 conn=wye bus1=c99 kw=54.80 pf=0.83 kv=0.38 daily=semana
new load.carga100 phases=3 conn=wye bus1=c100 kw=51.90 pf=0.86 kv=0.38 daily=semana
