new load.carga1.txt phases=3 conn=wye bus1=b kw=182.69 pf=0.99 kv=0.38 daily=default
new load.carga2.txt phases=3 conn=wye bus1=b kw=127.46 pf=0.95 kv=0.38 daily=default
