new load.carga2.txt phases=3 conn=wye bus1=b kw=5.55 pf=0.96 kv=0.22 daily=default