new load.carga9.txt phases=3 conn=wye bus1=b kw=18.82 pf=0.98 kv=0.22 daily=default