new load.carga1.txt phases=3 conn=wye bus1=b kw=44.82 pf=0.83 kv=0.38 daily=default
