new load.carga1.txt phases=3 conn=wye bus1=b kw=15.22 pf=0.83 kv=0.38 daily=default
