new load.carga1 phases=3 conn=wye bus1=c1 kw=57.29 pf=0.90 kv=0.38 daily=default
new load.carga2 phases=3 conn=wye bus1=c2 kw=56.56 pf=0.83 kv=0.38 daily=default
new load.carga3 phases=3 conn=wye bus1=c3 kw=57.77 pf=0.99 kv=0.38 daily=default
new load.carga4 phases=3 conn=wye bus1=c4 kw=50.47 pf=0.97 kv=0.38 daily=default
new load.carga5 phases=3 conn=wye bus1=c5 kw=59.95 pf=0.82 kv=0.38 daily=default
new load.carga6 phases=3 conn=wye bus1=c6 kw=51.26 pf=0.99 kv=0.38 daily=default
new load.carga7 phases=3 conn=wye bus1=c7 kw=55.32 pf=0.95 kv=0.38 daily=default
new load.carga8 phases=3 conn=wye bus1=c8 kw=52.23 pf=0.92 kv=0.38 daily=default
new load.carga9 phases=3 conn=wye bus1=c9 kw=53.21 pf=0.86 kv=0.38 daily=default
new load.carga10 phases=3 conn=wye bus1=c10 kw=57.23 pf=0.84 kv=0.38 daily=default
new load.carga11 phases=3 conn=wye bus1=c11 kw=56.81 pf=0.94 kv=0.38 daily=default
new load.carga12 phases=3 conn=wye bus1=c12 kw=55.05 pf=0.91 kv=0.38 daily=default
new load.carga13 phases=3 conn=wye bus1=c13 kw=54.62 pf=0.83 kv=0.38 daily=default
new load.carga14 phases=3 conn=wye bus1=c14 kw=55.33 pf=0.80 kv=0.38 daily=default
new load.carga15 phases=3 conn=wye bus1=c15 kw=55.64 pf=0.92 kv=0.38 daily=default
new load.carga16 phases=3 conn=wye bus1=c16 kw=59.81 pf=0.85 kv=0.38 daily=default
new load.carga17 phases=3 conn=wye bus1=c17 kw=51.91 pf=0.98 kv=0.38 daily=default
new load.carga18 phases=3 conn=wye bus1=c18 kw=58.58 pf=0.92 kv=0.38 daily=default
new load.carga19 phases=3 conn=wye bus1=c19 kw=52.57 pf=0.89 kv=0.38 daily=default
new load.carga20 phases=3 conn=wye bus1=c20 kw=50.18 pf=0.89 kv=0.38 daily=default
new load.carga21 phases=3 conn=wye bus1=c21 kw=56.65 pf=0.90 kv=0.38 daily=default
new load.carga22 phases=3 conn=wye bus1=c22 kw=51.58 pf=0.83 kv=0.38 daily=default
new load.carga23 phases=3 conn=wye bus1=c23 kw=58.42 pf=0.88 kv=0.38 daily=default
new load.carga24 phases=3 conn=wye bus1=c24 kw=57.64 pf=0.98 kv=0.38 daily=default
new load.carga25 phases=3 conn=wye bus1=c25 kw=50.39 pf=0.90 kv=0.38 daily=default
new load.carga26 phases=3 conn=wye bus1=c26 kw=55.14 pf=0.86 kv=0.38 daily=default
new load.carga27 phases=3 conn=wye bus1=c27 kw=57.82 pf=0.86 kv=0.38 daily=default
new load.carga28 phases=3 conn=wye bus1=c28 kw=58.21 pf=0.96 kv=0.38 daily=default
new load.carga29 phases=3 conn=wye bus1=c29 kw=50.56 pf=0.97 kv=0.38 daily=default
new load.carga30 phases=3 conn=wye bus1=c30 kw=51.11 pf=0.93 kv=0.38 daily=default
new load.carga31 phases=3 conn=wye bus1=c31 kw=50.43 pf=0.90 kv=0.38 daily=default
new load.carga32 phases=3 conn=wye bus1=c32 kw=58.23 pf=0.88 kv=0.38 daily=default
new load.carga33 phases=3 conn=wye bus1=c33 kw=53.27 pf=0.91 kv=0.38 daily=default
new load.carga34 phases=3 conn=wye bus1=c34 kw=54.19 pf=0.81 kv=0.38 daily=default
new load.carga35 phases=3 conn=wye bus1=c35 kw=51.90 pf=0.94 kv=0.38 daily=default
new load.carga36 phases=3 conn=wye bus1=c36 kw=55.45 pf=0.81 kv=0.38 daily=default
new load.carga37 phases=3 conn=wye bus1=c37 kw=56.60 pf=0.99 kv=0.38 daily=default
new load.carga38 phases=3 conn=wye bus1=c38 kw=51.42 pf=0.84 kv=0.38 daily=default
new load.carga39 phases=3 conn=wye bus1=c39 kw=54.87 pf=0.89 kv=0.38 daily=default
new load.carga40 phases=3 conn=wye bus1=c40 kw=53.42 pf=0.95 kv=0.38 daily=default
new load.carga41 phases=3 conn=wye bus1=c41 kw=55.87 pf=0.90 kv=0.38 daily=default
new load.carga42 phases=3 conn=wye bus1=c42 kw=58.60 pf=0.92 kv=0.38 daily=default
new load.carga43 phases=3 conn=wye bus1=c43 kw=53.59 pf=0.82 kv=0.38 daily=default
new load.carga44 phases=3 conn=wye bus1=c44 kw=54.44 pf=0.93 kv=0.38 daily=default
new load.carga45 phases=3 conn=wye bus1=c45 kw=52.09 pf=0.96 kv=0.38 daily=default
new load.carga46 phases=3 conn=wye bus1=c46 kw=53.45 pf=0.83 kv=0.38 daily=default
new load.carga47 phases=3 conn=wye bus1=c47 kw=56.23 pf=0.87 kv=0.38 daily=default
new load.carga48 phases=3 conn=wye bus1=c48 kw=59.16 pf=0.85 kv=0.38 daily=default
new load.carga49 phases=3 conn=wye bus1=c49 kw=58.44 pf=0.94 kv=0.38 daily=default
new load.carga50 phases=3 conn=wye bus1=c50 kw=57.46 pf=0.92 kv=0.38 daily=default
new load.carga51 phases=3 conn=wye bus1=c51 kw=50.32 pf=0.82 kv=0.38 daily=default
new load.carga52 phases=3 conn=wye bus1=c52 kw=53.53 pf=0.94 kv=0.38 daily=default
new load.carga53 phases=3 conn=wye bus1=c53 kw=52.15 pf=0.92 kv=0.38 daily=default
new load.carga54 phases=3 conn=wye bus1=c54 kw=56.95 pf=0.96 kv=0.38 daily=default
new load.carga55 phases=3 conn=wye bus1=c55 kw=51.41 pf=0.88 kv=0.38 daily=default
new load.carga56 phases=3 conn=wye bus1=c56 kw=50.63 pf=0.83 kv=0.38 daily=default
new load.carga57 phases=3 conn=wye bus1=c57 kw=55.71 pf=0.87 kv=0.38 daily=default
new load.carga58 phases=3 conn=wye bus1=c58 kw=51.01 pf=0.89 kv=0.38 daily=default
new load.carga59 phases=3 conn=wye bus1=c59 kw=51.74 pf=0.93 kv=0.38 daily=default
new load.carga60 phases=3 conn=wye bus1=c60 kw=52.20 pf=0.98 kv=0.38 daily=default
new load.carga61 phases=3 conn=wye bus1=c61 kw=52.18 pf=0.96 kv=0.38 daily=default
new load.carga62 phases=3 conn=wye bus1=c62 kw=51.31 pf=0.96 kv=0.38 daily=default
new load.carga63 phases=3 conn=wye bus1=c63 kw=52.24 pf=0.96 kv=0.38 daily=default
new load.carga64 phases=3 conn=wye bus1=c64 kw=54.08 pf=0.96 kv=0.38 daily=default
new load.carga65 phases=3 conn=wye bus1=c65 kw=53.33 pf=0.94 kv=0.38 daily=default
new load.carga66 phases=3 conn=wye bus1=c66 kw=58.45 pf=0.95 kv=0.38 daily=default
new load.carga67 phases=3 conn=wye bus1=c67 kw=56.75 pf=0.92 kv=0.38 daily=default
new load.carga68 phases=3 conn=wye bus1=c68 kw=51.40 pf=0.95 kv=0.38 daily=default
new load.carga69 phases=3 conn=wye bus1=c69 kw=56.78 pf=0.81 kv=0.38 daily=default
new load.carga70 phases=3 conn=wye bus1=c70 kw=55.80 pf=0.95 kv=0.38 daily=default
new load.carga71 phases=3 conn=wye bus1=c71 kw=52.78 pf=0.95 kv=0.38 daily=default
new load.carga72 phases=3 conn=wye bus1=c72 kw=52.94 pf=0.89 kv=0.38 daily=default
new load.carga73 phases=3 conn=wye bus1=c73 kw=57.17 pf=0.92 kv=0.38 daily=default
new load.carga74 phases=3 conn=wye bus1=c74 kw=54.97 pf=0.99 kv=0.38 daily=default
new load.carga75 phases=3 conn=wye bus1=c75 kw=57.57 pf=0.93 kv=0.38 daily=default
new load.carga76 phases=3 conn=wye bus1=c76 kw=59.88 pf=0.95 kv=0.38 daily=default
new load.carga77 phases=3 conn=wye bus1=c77 kw=53.63 pf=0.85 kv=0.38 daily=default
new load.carga78 phases=3 conn=wye bus1=c78 kw=57.81 pf=0.97 kv=0.38 daily=default
new load.carga79 phases=3 conn=wye bus1=c79 kw=58.84 pf=0.95 kv=0.38 daily=default
new load.carga80 phases=3 conn=wye bus1=c80 kw=58.10 pf=0.84 kv=0.38 daily=default
new load.carga81 phases=3 conn=wye bus1=c81 kw=50.46 pf=0.91 kv=0.38 daily=default
new load.carga82 phases=3 conn=wye bus1=c82 kw=58.29 pf=0.91 kv=0.38 daily=default
new load.carga83 phases=3 conn=wye bus1=c83 kw=51.51 pf=0.88 kv=0.38 daily=default
new load.carga84 phases=3 conn=wye bus1=c84 kw=57.34 pf=0.97 kv=0.38 daily=default
new load.carga85 phases=3 conn=wye bus1=c85 kw=59.28 pf=0.88 kv=0.38 daily=default
new load.carga86 phases=3 conn=wye bus1=c86 kw=59.40 pf=0.92 kv=0.38 daily=default
new load.carga87 phases=3 conn=wye bus1=c87 kw=52.71 pf=0.94 kv=0.38 daily=default
new load.carga88 phases=3 conn=wye bus1=c88 kw=51.81 pf=0.98 kv=0.38 daily=default
new load.carga89 phases=3 conn=wye bus1=c89 kw=53.85 pf=0.91 kv=0.38 daily=default
new load.carga90 phases=3 conn=wye bus1=c90 kw=53.08 pf=0.81 kv=0.38 daily=default
new load.carga91 phases=3 conn=wye bus1=c91 kw=57.13 pf=0.96 kv=0.38 daily=default
new load.carga92 phases=3 conn=wye bus1=c92 kw=51.12 pf=1.00 kv=0.38 daily=default
new load.carga93 phases=3 conn=wye bus1=c93 kw=55.10 pf=0.93 kv=0.38 daily=default
new load.carga94 phases=3 conn=wye bus1=c94 kw=54.94 pf=0.89 kv=0.38 daily=default
new load.carga95 phases=3 conn=wye bus1=c95 kw=55.54 pf=0.86 kv=0.38 daily=default
new load.carga96 phases=3 conn=wye bus1=c96 kw=54.67 pf=0.94 kv=0.38 daily=default
new load.carga97 phases=3 conn=wye bus1=c97 kw=52.37 pf=0.98 kv=0.38 daily=default
new load.carga98 phases=3 conn=wye bus1=c98 kw=58.34 pf=0.92 kv=0.38 daily=default
new load.carga99 phases=3 conn=wye bus1=c99 kw=50.14 pf=0.83 kv=0.38 daily=default
new load.carga100 phases=3 conn=wye bus1=c100 kw=51.92 pf=0.88 kv=0.38 daily=default
