new load.carga7.txt phases=3 conn=wye bus1=b kw=43.70 pf=0.83 kv=0.22 daily=default