new load.carga8.txt phases=3 conn=wye bus1=b kw=9.76 pf=0.91 kv=0.22 daily=default