new load.carga3.txt phases=3 conn=wye bus1=b kw=44.51 pf=0.92 kv=0.22 daily=default