new load.carga8.txt phases=3 conn=wye bus1=b kw=37.49 pf=0.92 kv=0.22 daily=default