new load.carga1 phases=3 conn=wye bus1=c1 kw=59.46 pf=0.87 kv=0.38 daily=default
new load.carga2 phases=3 conn=wye bus1=c2 kw=57.84 pf=0.90 kv=0.38 daily=default
new load.carga3 phases=3 conn=wye bus1=c3 kw=52.33 pf=0.84 kv=0.38 daily=default
new load.carga4 phases=3 conn=wye bus1=c4 kw=55.52 pf=0.89 kv=0.38 daily=default
new load.carga5 phases=3 conn=wye bus1=c5 kw=57.23 pf=0.83 kv=0.38 daily=default
new load.carga6 phases=3 conn=wye bus1=c6 kw=52.48 pf=0.98 kv=0.38 daily=default
new load.carga7 phases=3 conn=wye bus1=c7 kw=58.91 pf=0.89 kv=0.38 daily=default
new load.carga8 phases=3 conn=wye bus1=c8 kw=57.34 pf=0.94 kv=0.38 daily=default
new load.carga9 phases=3 conn=wye bus1=c9 kw=59.96 pf=0.93 kv=0.38 daily=default
new load.carga10 phases=3 conn=wye bus1=c10 kw=57.70 pf=0.84 kv=0.38 daily=default
new load.carga11 phases=3 conn=wye bus1=c11 kw=52.59 pf=0.98 kv=0.38 daily=default
new load.carga12 phases=3 conn=wye bus1=c12 kw=56.19 pf=0.99 kv=0.38 daily=default
new load.carga13 phases=3 conn=wye bus1=c13 kw=55.26 pf=0.94 kv=0.38 daily=default
new load.carga14 phases=3 conn=wye bus1=c14 kw=56.83 pf=0.94 kv=0.38 daily=default
new load.carga15 phases=3 conn=wye bus1=c15 kw=54.87 pf=0.93 kv=0.38 daily=default
new load.carga16 phases=3 conn=wye bus1=c16 kw=51.61 pf=0.95 kv=0.38 daily=default
new load.carga17 phases=3 conn=wye bus1=c17 kw=55.41 pf=0.80 kv=0.38 daily=default
new load.carga18 phases=3 conn=wye bus1=c18 kw=51.52 pf=0.88 kv=0.38 daily=default
new load.carga19 phases=3 conn=wye bus1=c19 kw=58.64 pf=0.87 kv=0.38 daily=default
new load.carga20 phases=3 conn=wye bus1=c20 kw=53.76 pf=0.81 kv=0.38 daily=default
new load.carga21 phases=3 conn=wye bus1=c21 kw=52.85 pf=0.83 kv=0.38 daily=default
new load.carga22 phases=3 conn=wye bus1=c22 kw=52.02 pf=0.89 kv=0.38 daily=default
new load.carga23 phases=3 conn=wye bus1=c23 kw=51.34 pf=1.00 kv=0.38 daily=default
new load.carga24 phases=3 conn=wye bus1=c24 kw=58.91 pf=0.88 kv=0.38 daily=default
new load.carga25 phases=3 conn=wye bus1=c25 kw=54.77 pf=0.92 kv=0.38 daily=default
new load.carga26 phases=3 conn=wye bus1=c26 kw=52.51 pf=0.87 kv=0.38 daily=default
new load.carga27 phases=3 conn=wye bus1=c27 kw=57.08 pf=0.99 kv=0.38 daily=default
new load.carga28 phases=3 conn=wye bus1=c28 kw=57.46 pf=0.80 kv=0.38 daily=default
new load.carga29 phases=3 conn=wye bus1=c29 kw=51.08 pf=0.95 kv=0.38 daily=default
new load.carga30 phases=3 conn=wye bus1=c30 kw=51.43 pf=0.86 kv=0.38 daily=default
new load.carga31 phases=3 conn=wye bus1=c31 kw=54.53 pf=0.83 kv=0.38 daily=default
new load.carga32 phases=3 conn=wye bus1=c32 kw=50.09 pf=0.89 kv=0.38 daily=default
new load.carga33 phases=3 conn=wye bus1=c33 kw=55.87 pf=0.88 kv=0.38 daily=default
new load.carga34 phases=3 conn=wye bus1=c34 kw=51.41 pf=0.82 kv=0.38 daily=default
new load.carga35 phases=3 conn=wye bus1=c35 kw=57.73 pf=0.97 kv=0.38 daily=default
new load.carga36 phases=3 conn=wye bus1=c36 kw=58.58 pf=0.86 kv=0.38 daily=default
new load.carga37 phases=3 conn=wye bus1=c37 kw=59.47 pf=0.81 kv=0.38 daily=default
new load.carga38 phases=3 conn=wye bus1=c38 kw=58.79 pf=0.95 kv=0.38 daily=default
new load.carga39 phases=3 conn=wye bus1=c39 kw=50.03 pf=0.98 kv=0.38 daily=default
new load.carga40 phases=3 conn=wye bus1=c40 kw=50.68 pf=0.90 kv=0.38 daily=default
new load.carga41 phases=3 conn=wye bus1=c41 kw=54.62 pf=0.81 kv=0.38 daily=default
new load.carga42 phases=3 conn=wye bus1=c42 kw=51.94 pf=0.82 kv=0.38 daily=default
new load.carga43 phases=3 conn=wye bus1=c43 kw=55.24 pf=0.91 kv=0.38 daily=default
new load.carga44 phases=3 conn=wye bus1=c44 kw=53.40 pf=0.94 kv=0.38 daily=default
new load.carga45 phases=3 conn=wye bus1=c45 kw=57.79 pf=0.99 kv=0.38 daily=default
new load.carga46 phases=3 conn=wye bus1=c46 kw=59.25 pf=0.81 kv=0.38 daily=default
new load.carga47 phases=3 conn=wye bus1=c47 kw=52.60 pf=0.83 kv=0.38 daily=default
new load.carga48 phases=3 conn=wye bus1=c48 kw=50.71 pf=0.99 kv=0.38 daily=default
new load.carga49 phases=3 conn=wye bus1=c49 kw=57.12 pf=0.80 kv=0.38 daily=default
new load.carga50 phases=3 conn=wye bus1=c50 kw=57.76 pf=0.95 kv=0.38 daily=default
new load.carga51 phases=3 conn=wye bus1=c51 kw=56.50 pf=0.82 kv=0.38 daily=default
new load.carga52 phases=3 conn=wye bus1=c52 kw=51.00 pf=0.91 kv=0.38 daily=default
new load.carga53 phases=3 conn=wye bus1=c53 kw=52.17 pf=0.99 kv=0.38 daily=default
new load.carga54 phases=3 conn=wye bus1=c54 kw=57.91 pf=0.84 kv=0.38 daily=default
new load.carga55 phases=3 conn=wye bus1=c55 kw=57.05 pf=0.96 kv=0.38 daily=default
new load.carga56 phases=3 conn=wye bus1=c56 kw=57.97 pf=1.00 kv=0.38 daily=default
new load.carga57 phases=3 conn=wye bus1=c57 kw=59.10 pf=0.83 kv=0.38 daily=default
new load.carga58 phases=3 conn=wye bus1=c58 kw=57.87 pf=0.84 kv=0.38 daily=default
new load.carga59 phases=3 conn=wye bus1=c59 kw=58.40 pf=0.84 kv=0.38 daily=default
new load.carga60 phases=3 conn=wye bus1=c60 kw=57.23 pf=0.96 kv=0.38 daily=default
new load.carga61 phases=3 conn=wye bus1=c61 kw=52.55 pf=0.99 kv=0.38 daily=default
new load.carga62 phases=3 conn=wye bus1=c62 kw=58.38 pf=0.89 kv=0.38 daily=default
new load.carga63 phases=3 conn=wye bus1=c63 kw=52.40 pf=0.84 kv=0.38 daily=default
new load.carga64 phases=3 conn=wye bus1=c64 kw=59.60 pf=0.95 kv=0.38 daily=default
new load.carga65 phases=3 conn=wye bus1=c65 kw=55.57 pf=0.91 kv=0.38 daily=default
new load.carga66 phases=3 conn=wye bus1=c66 kw=58.69 pf=0.94 kv=0.38 daily=default
new load.carga67 phases=3 conn=wye bus1=c67 kw=50.49 pf=0.86 kv=0.38 daily=default
new load.carga68 phases=3 conn=wye bus1=c68 kw=58.49 pf=0.98 kv=0.38 daily=default
new load.carga69 phases=3 conn=wye bus1=c69 kw=53.62 pf=0.82 kv=0.38 daily=default
new load.carga70 phases=3 conn=wye bus1=c70 kw=54.93 pf=0.88 kv=0.38 daily=default
new load.carga71 phases=3 conn=wye bus1=c71 kw=57.63 pf=0.83 kv=0.38 daily=default
new load.carga72 phases=3 conn=wye bus1=c72 kw=58.02 pf=0.90 kv=0.38 daily=default
new load.carga73 phases=3 conn=wye bus1=c73 kw=59.41 pf=0.85 kv=0.38 daily=default
new load.carga74 phases=3 conn=wye bus1=c74 kw=50.34 pf=0.88 kv=0.38 daily=default
new load.carga75 phases=3 conn=wye bus1=c75 kw=50.62 pf=0.87 kv=0.38 daily=default
new load.carga76 phases=3 conn=wye bus1=c76 kw=50.25 pf=0.95 kv=0.38 daily=default
new load.carga77 phases=3 conn=wye bus1=c77 kw=59.99 pf=0.84 kv=0.38 daily=default
new load.carga78 phases=3 conn=wye bus1=c78 kw=59.78 pf=0.95 kv=0.38 daily=default
new load.carga79 phases=3 conn=wye bus1=c79 kw=59.10 pf=0.88 kv=0.38 daily=default
new load.carga80 phases=3 conn=wye bus1=c80 kw=59.46 pf=0.96 kv=0.38 daily=default
new load.carga81 phases=3 conn=wye bus1=c81 kw=53.91 pf=0.97 kv=0.38 daily=default
new load.carga82 phases=3 conn=wye bus1=c82 kw=56.14 pf=0.89 kv=0.38 daily=default
new load.carga83 phases=3 conn=wye bus1=c83 kw=53.06 pf=0.92 kv=0.38 daily=default
new load.carga84 phases=3 conn=wye bus1=c84 kw=52.70 pf=0.91 kv=0.38 daily=default
new load.carga85 phases=3 conn=wye bus1=c85 kw=54.39 pf=0.85 kv=0.38 daily=default
new load.carga86 phases=3 conn=wye bus1=c86 kw=51.00 pf=0.92 kv=0.38 daily=default
new load.carga87 phases=3 conn=wye bus1=c87 kw=59.03 pf=0.96 kv=0.38 daily=default
new load.carga88 phases=3 conn=wye bus1=c88 kw=56.15 pf=0.96 kv=0.38 daily=default
new load.carga89 phases=3 conn=wye bus1=c89 kw=58.96 pf=0.95 kv=0.38 daily=default
new load.carga90 phases=3 conn=wye bus1=c90 kw=56.54 pf=0.82 kv=0.38 daily=default
new load.carga91 phases=3 conn=wye bus1=c91 kw=52.16 pf=0.92 kv=0.38 daily=default
new load.carga92 phases=3 conn=wye bus1=c92 kw=59.76 pf=0.82 kv=0.38 daily=default
new load.carga93 phases=3 conn=wye bus1=c93 kw=55.26 pf=0.81 kv=0.38 daily=default
new load.carga94 phases=3 conn=wye bus1=c94 kw=51.68 pf=0.93 kv=0.38 daily=default
new load.carga95 phases=3 conn=wye bus1=c95 kw=50.09 pf=0.96 kv=0.38 daily=default
new load.carga96 phases=3 conn=wye bus1=c96 kw=53.00 pf=1.00 kv=0.38 daily=default
new load.carga97 phases=3 conn=wye bus1=c97 kw=51.65 pf=0.84 kv=0.38 daily=default
new load.carga98 phases=3 conn=wye bus1=c98 kw=52.61 pf=0.97 kv=0.38 daily=default
new load.carga99 phases=3 conn=wye bus1=c99 kw=51.32 pf=0.99 kv=0.38 daily=default
new load.carga100 phases=3 conn=wye bus1=c100 kw=53.30 pf=0.88 kv=0.38 daily=default
new load.carga101 phases=3 conn=wye bus1=c101 kw=52.84 pf=0.89 kv=0.38 daily=default
new load.carga102 phases=3 conn=wye bus1=c102 kw=58.44 pf=0.94 kv=0.38 daily=default
new load.carga103 phases=3 conn=wye bus1=c103 kw=55.61 pf=0.96 kv=0.38 daily=default
new load.carga104 phases=3 conn=wye bus1=c104 kw=59.88 pf=0.96 kv=0.38 daily=default
new load.carga105 phases=3 conn=wye bus1=c105 kw=51.86 pf=0.83 kv=0.38 daily=default
new load.carga106 phases=3 conn=wye bus1=c106 kw=58.55 pf=0.92 kv=0.38 daily=default
new load.carga107 phases=3 conn=wye bus1=c107 kw=56.72 pf=0.95 kv=0.38 daily=default
new load.carga108 phases=3 conn=wye bus1=c108 kw=59.48 pf=0.98 kv=0.38 daily=default
new load.carga109 phases=3 conn=wye bus1=c109 kw=56.34 pf=0.85 kv=0.38 daily=default
new load.carga110 phases=3 conn=wye bus1=c110 kw=57.77 pf=0.96 kv=0.38 daily=default
new load.carga111 phases=3 conn=wye bus1=c111 kw=50.76 pf=0.84 kv=0.38 daily=default
new load.carga112 phases=3 conn=wye bus1=c112 kw=58.56 pf=0.99 kv=0.38 daily=default
new load.carga113 phases=3 conn=wye bus1=c113 kw=50.09 pf=0.82 kv=0.38 daily=default
new load.carga114 phases=3 conn=wye bus1=c114 kw=57.79 pf=0.97 kv=0.38 daily=default
new load.carga115 phases=3 conn=wye bus1=c115 kw=50.94 pf=0.81 kv=0.38 daily=default
new load.carga116 phases=3 conn=wye bus1=c116 kw=53.96 pf=0.97 kv=0.38 daily=default
new load.carga117 phases=3 conn=wye bus1=c117 kw=58.03 pf=0.96 kv=0.38 daily=default
new load.carga118 phases=3 conn=wye bus1=c118 kw=52.24 pf=0.92 kv=0.38 daily=default
new load.carga119 phases=3 conn=wye bus1=c119 kw=57.23 pf=0.84 kv=0.38 daily=default
new load.carga120 phases=3 conn=wye bus1=c120 kw=51.94 pf=0.86 kv=0.38 daily=default
new load.carga121 phases=3 conn=wye bus1=c121 kw=55.83 pf=0.80 kv=0.38 daily=default
new load.carga122 phases=3 conn=wye bus1=c122 kw=52.92 pf=0.99 kv=0.38 daily=default
new load.carga123 phases=3 conn=wye bus1=c123 kw=52.03 pf=0.84 kv=0.38 daily=default
new load.carga124 phases=3 conn=wye bus1=c124 kw=52.11 pf=0.99 kv=0.38 daily=default
new load.carga125 phases=3 conn=wye bus1=c125 kw=55.18 pf=0.97 kv=0.38 daily=default
new load.carga126 phases=3 conn=wye bus1=c126 kw=52.31 pf=0.94 kv=0.38 daily=default
new load.carga127 phases=3 conn=wye bus1=c127 kw=50.13 pf=0.98 kv=0.38 daily=default
new load.carga128 phases=3 conn=wye bus1=c128 kw=51.92 pf=0.83 kv=0.38 daily=default
new load.carga129 phases=3 conn=wye bus1=c129 kw=50.29 pf=0.90 kv=0.38 daily=default
new load.carga130 phases=3 conn=wye bus1=c130 kw=51.01 pf=0.99 kv=0.38 daily=default
new load.carga131 phases=3 conn=wye bus1=c131 kw=52.78 pf=0.87 kv=0.38 daily=default
new load.carga132 phases=3 conn=wye bus1=c132 kw=55.69 pf=0.93 kv=0.38 daily=default
new load.carga133 phases=3 conn=wye bus1=c133 kw=53.42 pf=0.92 kv=0.38 daily=default
new load.carga134 phases=3 conn=wye bus1=c134 kw=58.27 pf=0.94 kv=0.38 daily=default
new load.carga135 phases=3 conn=wye bus1=c135 kw=54.16 pf=0.90 kv=0.38 daily=default
new load.carga136 phases=3 conn=wye bus1=c136 kw=57.54 pf=0.89 kv=0.38 daily=default
new load.carga137 phases=3 conn=wye bus1=c137 kw=54.77 pf=0.81 kv=0.38 daily=default
new load.carga138 phases=3 conn=wye bus1=c138 kw=51.04 pf=0.92 kv=0.38 daily=default
new load.carga139 phases=3 conn=wye bus1=c139 kw=54.57 pf=0.91 kv=0.38 daily=default
new load.carga140 phases=3 conn=wye bus1=c140 kw=56.19 pf=0.86 kv=0.38 daily=default
new load.carga141 phases=3 conn=wye bus1=c141 kw=51.86 pf=0.87 kv=0.38 daily=default
new load.carga142 phases=3 conn=wye bus1=c142 kw=51.32 pf=0.84 kv=0.38 daily=default
new load.carga143 phases=3 conn=wye bus1=c143 kw=56.30 pf=0.88 kv=0.38 daily=default
new load.carga144 phases=3 conn=wye bus1=c144 kw=55.65 pf=0.80 kv=0.38 daily=default
new load.carga145 phases=3 conn=wye bus1=c145 kw=51.54 pf=0.98 kv=0.38 daily=default
new load.carga146 phases=3 conn=wye bus1=c146 kw=59.24 pf=0.85 kv=0.38 daily=default
new load.carga147 phases=3 conn=wye bus1=c147 kw=54.41 pf=0.84 kv=0.38 daily=default
new load.carga148 phases=3 conn=wye bus1=c148 kw=55.70 pf=0.98 kv=0.38 daily=default
new load.carga149 phases=3 conn=wye bus1=c149 kw=52.22 pf=0.96 kv=0.38 daily=default
new load.carga150 phases=3 conn=wye bus1=c150 kw=59.27 pf=0.84 kv=0.38 daily=default
new load.carga151 phases=3 conn=wye bus1=c151 kw=59.06 pf=0.81 kv=0.38 daily=default
new load.carga152 phases=3 conn=wye bus1=c152 kw=51.59 pf=0.92 kv=0.38 daily=default
new load.carga153 phases=3 conn=wye bus1=c153 kw=58.76 pf=1.00 kv=0.38 daily=default
new load.carga154 phases=3 conn=wye bus1=c154 kw=58.50 pf=1.00 kv=0.38 daily=default
new load.carga155 phases=3 conn=wye bus1=c155 kw=51.22 pf=0.86 kv=0.38 daily=default
new load.carga156 phases=3 conn=wye bus1=c156 kw=56.22 pf=0.96 kv=0.38 daily=default
new load.carga157 phases=3 conn=wye bus1=c157 kw=53.66 pf=0.95 kv=0.38 daily=default
new load.carga158 phases=3 conn=wye bus1=c158 kw=55.82 pf=0.82 kv=0.38 daily=default
new load.carga159 phases=3 conn=wye bus1=c159 kw=54.13 pf=0.86 kv=0.38 daily=default
new load.carga160 phases=3 conn=wye bus1=c160 kw=57.86 pf=0.82 kv=0.38 daily=default
new load.carga161 phases=3 conn=wye bus1=c161 kw=54.22 pf=0.99 kv=0.38 daily=default
new load.carga162 phases=3 conn=wye bus1=c162 kw=57.77 pf=0.90 kv=0.38 daily=default
new load.carga163 phases=3 conn=wye bus1=c163 kw=51.41 pf=0.83 kv=0.38 daily=default
new load.carga164 phases=3 conn=wye bus1=c164 kw=58.13 pf=0.88 kv=0.38 daily=default
new load.carga165 phases=3 conn=wye bus1=c165 kw=50.96 pf=0.87 kv=0.38 daily=default
new load.carga166 phases=3 conn=wye bus1=c166 kw=57.39 pf=0.83 kv=0.38 daily=default
new load.carga167 phases=3 conn=wye bus1=c167 kw=55.79 pf=0.85 kv=0.38 daily=default
new load.carga168 phases=3 conn=wye bus1=c168 kw=57.61 pf=0.82 kv=0.38 daily=default
new load.carga169 phases=3 conn=wye bus1=c169 kw=57.08 pf=0.85 kv=0.38 daily=default
new load.carga170 phases=3 conn=wye bus1=c170 kw=55.76 pf=0.91 kv=0.38 daily=default
new load.carga171 phases=3 conn=wye bus1=c171 kw=59.56 pf=0.84 kv=0.38 daily=default
new load.carga172 phases=3 conn=wye bus1=c172 kw=57.42 pf=0.89 kv=0.38 daily=default
new load.carga173 phases=3 conn=wye bus1=c173 kw=50.32 pf=0.87 kv=0.38 daily=default
new load.carga174 phases=3 conn=wye bus1=c174 kw=51.10 pf=0.81 kv=0.38 daily=default
new load.carga175 phases=3 conn=wye bus1=c175 kw=50.58 pf=0.96 kv=0.38 daily=default
new load.carga176 phases=3 conn=wye bus1=c176 kw=54.82 pf=0.82 kv=0.38 daily=default
new load.carga177 phases=3 conn=wye bus1=c177 kw=56.78 pf=0.92 kv=0.38 daily=default
new load.carga178 phases=3 conn=wye bus1=c178 kw=57.41 pf=0.86 kv=0.38 daily=default
new load.carga179 phases=3 conn=wye bus1=c179 kw=58.72 pf=0.85 kv=0.38 daily=default
new load.carga180 phases=3 conn=wye bus1=c180 kw=51.33 pf=0.86 kv=0.38 daily=default
new load.carga181 phases=3 conn=wye bus1=c181 kw=54.02 pf=0.87 kv=0.38 daily=default
new load.carga182 phases=3 conn=wye bus1=c182 kw=51.60 pf=1.00 kv=0.38 daily=default
new load.carga183 phases=3 conn=wye bus1=c183 kw=57.82 pf=0.89 kv=0.38 daily=default
new load.carga184 phases=3 conn=wye bus1=c184 kw=53.20 pf=0.92 kv=0.38 daily=default
new load.carga185 phases=3 conn=wye bus1=c185 kw=58.76 pf=0.87 kv=0.38 daily=default
new load.carga186 phases=3 conn=wye bus1=c186 kw=58.51 pf=0.99 kv=0.38 daily=default
new load.carga187 phases=3 conn=wye bus1=c187 kw=51.02 pf=0.87 kv=0.38 daily=default
new load.carga188 phases=3 conn=wye bus1=c188 kw=57.11 pf=0.80 kv=0.38 daily=default
new load.carga189 phases=3 conn=wye bus1=c189 kw=54.29 pf=0.81 kv=0.38 daily=default
new load.carga190 phases=3 conn=wye bus1=c190 kw=53.58 pf=0.90 kv=0.38 daily=default
new load.carga191 phases=3 conn=wye bus1=c191 kw=56.78 pf=0.94 kv=0.38 daily=default
new load.carga192 phases=3 conn=wye bus1=c192 kw=55.15 pf=0.91 kv=0.38 daily=default
new load.carga193 phases=3 conn=wye bus1=c193 kw=50.30 pf=1.00 kv=0.38 daily=default
new load.carga194 phases=3 conn=wye bus1=c194 kw=58.61 pf=0.94 kv=0.38 daily=default
new load.carga195 phases=3 conn=wye bus1=c195 kw=58.52 pf=0.91 kv=0.38 daily=default
new load.carga196 phases=3 conn=wye bus1=c196 kw=58.17 pf=0.93 kv=0.38 daily=default
new load.carga197 phases=3 conn=wye bus1=c197 kw=59.25 pf=0.96 kv=0.38 daily=default
new load.carga198 phases=3 conn=wye bus1=c198 kw=58.30 pf=0.91 kv=0.38 daily=default
new load.carga199 phases=3 conn=wye bus1=c199 kw=57.13 pf=0.80 kv=0.38 daily=default
new load.carga200 phases=3 conn=wye bus1=c200 kw=55.34 pf=0.97 kv=0.38 daily=default
