new load.carga phases=3 conn=wye bus1=b kw=25 pf=0.92 kv=0.22 daily=default