new load.carga10.txt phases=3 conn=wye bus1=b kw=45.95 pf=0.89 kv=0.22 daily=default