new load.carga5.txt phases=3 conn=wye bus1=b kw=7.25 pf=0.97 kv=0.22 daily=default