new load.carga1 phases=3 conn=wye bus1=c1 kw=53.85 pf=0.83 kv=0.38 daily=default
new load.carga2 phases=3 conn=wye bus1=c2 kw=54.91 pf=0.96 kv=0.38 daily=default
new load.carga3 phases=3 conn=wye bus1=c3 kw=55.43 pf=0.84 kv=0.38 daily=default
new load.carga4 phases=3 conn=wye bus1=c4 kw=56.17 pf=0.93 kv=0.38 daily=default
new load.carga5 phases=3 conn=wye bus1=c5 kw=50.47 pf=0.92 kv=0.38 daily=default
new load.carga6 phases=3 conn=wye bus1=c6 kw=55.53 pf=0.98 kv=0.38 daily=default
new load.carga7 phases=3 conn=wye bus1=c7 kw=56.97 pf=0.95 kv=0.38 daily=default
new load.carga8 phases=3 conn=wye bus1=c8 kw=50.29 pf=0.93 kv=0.38 daily=default
new load.carga9 phases=3 conn=wye bus1=c9 kw=52.26 pf=0.86 kv=0.38 daily=default
new load.carga10 phases=3 conn=wye bus1=c10 kw=57.54 pf=0.93 kv=0.38 daily=default
new load.carga11 phases=3 conn=wye bus1=c11 kw=59.69 pf=0.98 kv=0.38 daily=default
new load.carga12 phases=3 conn=wye bus1=c12 kw=51.05 pf=0.82 kv=0.38 daily=default
new load.carga13 phases=3 conn=wye bus1=c13 kw=57.19 pf=0.96 kv=0.38 daily=default
new load.carga14 phases=3 conn=wye bus1=c14 kw=51.61 pf=0.83 kv=0.38 daily=default
new load.carga15 phases=3 conn=wye bus1=c15 kw=54.12 pf=0.81 kv=0.38 daily=default
new load.carga16 phases=3 conn=wye bus1=c16 kw=50.11 pf=0.85 kv=0.38 daily=default
new load.carga17 phases=3 conn=wye bus1=c17 kw=59.47 pf=0.99 kv=0.38 daily=default
new load.carga18 phases=3 conn=wye bus1=c18 kw=50.79 pf=0.82 kv=0.38 daily=default
new load.carga19 phases=3 conn=wye bus1=c19 kw=56.76 pf=0.95 kv=0.38 daily=default
new load.carga20 phases=3 conn=wye bus1=c20 kw=52.83 pf=0.94 kv=0.38 daily=default
new load.carga21 phases=3 conn=wye bus1=c21 kw=56.87 pf=0.93 kv=0.38 daily=default
new load.carga22 phases=3 conn=wye bus1=c22 kw=52.60 pf=0.98 kv=0.38 daily=default
new load.carga23 phases=3 conn=wye bus1=c23 kw=50.85 pf=0.81 kv=0.38 daily=default
new load.carga24 phases=3 conn=wye bus1=c24 kw=55.25 pf=0.92 kv=0.38 daily=default
new load.carga25 phases=3 conn=wye bus1=c25 kw=53.44 pf=0.97 kv=0.38 daily=default
new load.carga26 phases=3 conn=wye bus1=c26 kw=51.96 pf=0.82 kv=0.38 daily=default
new load.carga27 phases=3 conn=wye bus1=c27 kw=55.16 pf=0.87 kv=0.38 daily=default
new load.carga28 phases=3 conn=wye bus1=c28 kw=57.13 pf=0.83 kv=0.38 daily=default
new load.carga29 phases=3 conn=wye bus1=c29 kw=54.12 pf=0.84 kv=0.38 daily=default
new load.carga30 phases=3 conn=wye bus1=c30 kw=59.58 pf=0.89 kv=0.38 daily=default
new load.carga31 phases=3 conn=wye bus1=c31 kw=51.98 pf=0.87 kv=0.38 daily=default
new load.carga32 phases=3 conn=wye bus1=c32 kw=53.28 pf=0.82 kv=0.38 daily=default
new load.carga33 phases=3 conn=wye bus1=c33 kw=56.68 pf=0.97 kv=0.38 daily=default
new load.carga34 phases=3 conn=wye bus1=c34 kw=58.49 pf=0.98 kv=0.38 daily=default
new load.carga35 phases=3 conn=wye bus1=c35 kw=51.30 pf=0.86 kv=0.38 daily=default
new load.carga36 phases=3 conn=wye bus1=c36 kw=55.55 pf=0.98 kv=0.38 daily=default
new load.carga37 phases=3 conn=wye bus1=c37 kw=57.97 pf=0.93 kv=0.38 daily=default
new load.carga38 phases=3 conn=wye bus1=c38 kw=51.54 pf=0.83 kv=0.38 daily=default
new load.carga39 phases=3 conn=wye bus1=c39 kw=59.53 pf=0.84 kv=0.38 daily=default
new load.carga40 phases=3 conn=wye bus1=c40 kw=57.77 pf=0.97 kv=0.38 daily=default
new load.carga41 phases=3 conn=wye bus1=c41 kw=51.48 pf=0.92 kv=0.38 daily=default
new load.carga42 phases=3 conn=wye bus1=c42 kw=55.45 pf=0.82 kv=0.38 daily=default
new load.carga43 phases=3 conn=wye bus1=c43 kw=50.93 pf=0.93 kv=0.38 daily=default
new load.carga44 phases=3 conn=wye bus1=c44 kw=52.88 pf=0.92 kv=0.38 daily=default
new load.carga45 phases=3 conn=wye bus1=c45 kw=53.19 pf=0.95 kv=0.38 daily=default
new load.carga46 phases=3 conn=wye bus1=c46 kw=54.13 pf=0.98 kv=0.38 daily=default
new load.carga47 phases=3 conn=wye bus1=c47 kw=55.13 pf=0.94 kv=0.38 daily=default
new load.carga48 phases=3 conn=wye bus1=c48 kw=59.86 pf=0.82 kv=0.38 daily=default
new load.carga49 phases=3 conn=wye bus1=c49 kw=59.91 pf=0.88 kv=0.38 daily=default
new load.carga50 phases=3 conn=wye bus1=c50 kw=55.43 pf=0.89 kv=0.38 daily=default
new load.carga51 phases=3 conn=wye bus1=c51 kw=55.79 pf=0.99 kv=0.38 daily=default
new load.carga52 phases=3 conn=wye bus1=c52 kw=52.89 pf=0.88 kv=0.38 daily=default
new load.carga53 phases=3 conn=wye bus1=c53 kw=54.83 pf=0.84 kv=0.38 daily=default
new load.carga54 phases=3 conn=wye bus1=c54 kw=57.15 pf=0.87 kv=0.38 daily=default
new load.carga55 phases=3 conn=wye bus1=c55 kw=55.76 pf=0.87 kv=0.38 daily=default
new load.carga56 phases=3 conn=wye bus1=c56 kw=50.93 pf=0.96 kv=0.38 daily=default
new load.carga57 phases=3 conn=wye bus1=c57 kw=50.44 pf=0.84 kv=0.38 daily=default
new load.carga58 phases=3 conn=wye bus1=c58 kw=53.61 pf=0.84 kv=0.38 daily=default
new load.carga59 phases=3 conn=wye bus1=c59 kw=52.61 pf=0.94 kv=0.38 daily=default
new load.carga60 phases=3 conn=wye bus1=c60 kw=50.88 pf=0.99 kv=0.38 daily=default
new load.carga61 phases=3 conn=wye bus1=c61 kw=50.12 pf=0.91 kv=0.38 daily=default
new load.carga62 phases=3 conn=wye bus1=c62 kw=57.95 pf=0.88 kv=0.38 daily=default
new load.carga63 phases=3 conn=wye bus1=c63 kw=57.24 pf=0.94 kv=0.38 daily=default
new load.carga64 phases=3 conn=wye bus1=c64 kw=50.18 pf=0.83 kv=0.38 daily=default
new load.carga65 phases=3 conn=wye bus1=c65 kw=53.20 pf=0.96 kv=0.38 daily=default
new load.carga66 phases=3 conn=wye bus1=c66 kw=57.42 pf=0.86 kv=0.38 daily=default
new load.carga67 phases=3 conn=wye bus1=c67 kw=51.70 pf=0.88 kv=0.38 daily=default
new load.carga68 phases=3 conn=wye bus1=c68 kw=51.57 pf=0.92 kv=0.38 daily=default
new load.carga69 phases=3 conn=wye bus1=c69 kw=54.96 pf=0.90 kv=0.38 daily=default
new load.carga70 phases=3 conn=wye bus1=c70 kw=56.06 pf=0.89 kv=0.38 daily=default
new load.carga71 phases=3 conn=wye bus1=c71 kw=51.58 pf=0.88 kv=0.38 daily=default
new load.carga72 phases=3 conn=wye bus1=c72 kw=50.80 pf=0.89 kv=0.38 daily=default
new load.carga73 phases=3 conn=wye bus1=c73 kw=50.37 pf=0.84 kv=0.38 daily=default
new load.carga74 phases=3 conn=wye bus1=c74 kw=54.73 pf=0.99 kv=0.38 daily=default
new load.carga75 phases=3 conn=wye bus1=c75 kw=59.76 pf=0.81 kv=0.38 daily=default
new load.carga76 phases=3 conn=wye bus1=c76 kw=58.65 pf=0.85 kv=0.38 daily=default
new load.carga77 phases=3 conn=wye bus1=c77 kw=50.81 pf=0.88 kv=0.38 daily=default
new load.carga78 phases=3 conn=wye bus1=c78 kw=54.89 pf=0.83 kv=0.38 daily=default
new load.carga79 phases=3 conn=wye bus1=c79 kw=55.99 pf=0.90 kv=0.38 daily=default
new load.carga80 phases=3 conn=wye bus1=c80 kw=53.79 pf=0.99 kv=0.38 daily=default
new load.carga81 phases=3 conn=wye bus1=c81 kw=53.82 pf=0.99 kv=0.38 daily=default
new load.carga82 phases=3 conn=wye bus1=c82 kw=57.62 pf=0.82 kv=0.38 daily=default
new load.carga83 phases=3 conn=wye bus1=c83 kw=56.52 pf=0.85 kv=0.38 daily=default
new load.carga84 phases=3 conn=wye bus1=c84 kw=50.05 pf=0.95 kv=0.38 daily=default
new load.carga85 phases=3 conn=wye bus1=c85 kw=52.07 pf=0.80 kv=0.38 daily=default
new load.carga86 phases=3 conn=wye bus1=c86 kw=50.52 pf=0.81 kv=0.38 daily=default
new load.carga87 phases=3 conn=wye bus1=c87 kw=59.20 pf=0.97 kv=0.38 daily=default
new load.carga88 phases=3 conn=wye bus1=c88 kw=57.07 pf=0.85 kv=0.38 daily=default
new load.carga89 phases=3 conn=wye bus1=c89 kw=54.48 pf=0.91 kv=0.38 daily=default
new load.carga90 phases=3 conn=wye bus1=c90 kw=56.70 pf=0.97 kv=0.38 daily=default
new load.carga91 phases=3 conn=wye bus1=c91 kw=52.17 pf=0.84 kv=0.38 daily=default
new load.carga92 phases=3 conn=wye bus1=c92 kw=52.41 pf=0.90 kv=0.38 daily=default
new load.carga93 phases=3 conn=wye bus1=c93 kw=55.67 pf=0.94 kv=0.38 daily=default
new load.carga94 phases=3 conn=wye bus1=c94 kw=58.49 pf=0.96 kv=0.38 daily=default
new load.carga95 phases=3 conn=wye bus1=c95 kw=52.22 pf=0.96 kv=0.38 daily=default
new load.carga96 phases=3 conn=wye bus1=c96 kw=54.11 pf=0.98 kv=0.38 daily=default
new load.carga97 phases=3 conn=wye bus1=c97 kw=50.71 pf=0.91 kv=0.38 daily=default
new load.carga98 phases=3 conn=wye bus1=c98 kw=55.97 pf=0.84 kv=0.38 daily=default
new load.carga99 phases=3 conn=wye bus1=c99 kw=56.99 pf=0.91 kv=0.38 daily=default
new load.carga100 phases=3 conn=wye bus1=c100 kw=51.13 pf=0.92 kv=0.38 daily=default
