new load.carga1.txt phases=3 conn=wye bus1=b kw=58.39 pf=0.82 kv=0.38 daily=default
new load.carga2.txt phases=3 conn=wye bus1=b kw=55.74 pf=0.89 kv=0.38 daily=default
new load.carga3.txt phases=3 conn=wye bus1=b kw=56.37 pf=0.87 kv=0.38 daily=default
new load.carga4.txt phases=3 conn=wye bus1=b kw=50.64 pf=0.95 kv=0.38 daily=default
new load.carga5.txt phases=3 conn=wye bus1=b kw=59.91 pf=0.91 kv=0.38 daily=default
new load.carga6.txt phases=3 conn=wye bus1=b kw=58.69 pf=0.91 kv=0.38 daily=default
new load.carga7.txt phases=3 conn=wye bus1=b kw=58.85 pf=0.91 kv=0.38 daily=default
new load.carga8.txt phases=3 conn=wye bus1=b kw=53.00 pf=0.87 kv=0.38 daily=default
new load.carga9.txt phases=3 conn=wye bus1=b kw=50.57 pf=0.97 kv=0.38 daily=default
new load.carga10.txt phases=3 conn=wye bus1=b kw=54.56 pf=0.97 kv=0.38 daily=default
new load.carga11.txt phases=3 conn=wye bus1=b kw=54.78 pf=0.93 kv=0.38 daily=default
new load.carga12.txt phases=3 conn=wye bus1=b kw=57.37 pf=0.91 kv=0.38 daily=default
new load.carga13.txt phases=3 conn=wye bus1=b kw=58.95 pf=0.99 kv=0.38 daily=default
new load.carga14.txt phases=3 conn=wye bus1=b kw=50.57 pf=0.94 kv=0.38 daily=default
new load.carga15.txt phases=3 conn=wye bus1=b kw=52.34 pf=0.83 kv=0.38 daily=default
new load.carga16.txt phases=3 conn=wye bus1=b kw=51.75 pf=0.92 kv=0.38 daily=default
new load.carga17.txt phases=3 conn=wye bus1=b kw=58.51 pf=0.90 kv=0.38 daily=default
new load.carga18.txt phases=3 conn=wye bus1=b kw=50.75 pf=0.94 kv=0.38 daily=default
new load.carga19.txt phases=3 conn=wye bus1=b kw=52.62 pf=0.86 kv=0.38 daily=default
new load.carga20.txt phases=3 conn=wye bus1=b kw=53.09 pf=0.84 kv=0.38 daily=default
new load.carga21.txt phases=3 conn=wye bus1=b kw=58.30 pf=0.83 kv=0.38 daily=default
new load.carga22.txt phases=3 conn=wye bus1=b kw=50.41 pf=1.00 kv=0.38 daily=default
new load.carga23.txt phases=3 conn=wye bus1=b kw=58.78 pf=0.93 kv=0.38 daily=default
new load.carga24.txt phases=3 conn=wye bus1=b kw=56.98 pf=0.86 kv=0.38 daily=default
new load.carga25.txt phases=3 conn=wye bus1=b kw=50.90 pf=0.85 kv=0.38 daily=default
new load.carga26.txt phases=3 conn=wye bus1=b kw=55.54 pf=0.94 kv=0.38 daily=default
new load.carga27.txt phases=3 conn=wye bus1=b kw=58.07 pf=0.86 kv=0.38 daily=default
new load.carga28.txt phases=3 conn=wye bus1=b kw=57.23 pf=0.81 kv=0.38 daily=default
new load.carga29.txt phases=3 conn=wye bus1=b kw=51.98 pf=0.89 kv=0.38 daily=default
new load.carga30.txt phases=3 conn=wye bus1=b kw=56.24 pf=0.93 kv=0.38 daily=default
new load.carga31.txt phases=3 conn=wye bus1=b kw=57.46 pf=0.89 kv=0.38 daily=default
new load.carga32.txt phases=3 conn=wye bus1=b kw=57.64 pf=0.98 kv=0.38 daily=default
new load.carga33.txt phases=3 conn=wye bus1=b kw=53.81 pf=0.97 kv=0.38 daily=default
new load.carga34.txt phases=3 conn=wye bus1=b kw=54.61 pf=0.86 kv=0.38 daily=default
new load.carga35.txt phases=3 conn=wye bus1=b kw=57.53 pf=0.89 kv=0.38 daily=default
new load.carga36.txt phases=3 conn=wye bus1=b kw=54.77 pf=0.88 kv=0.38 daily=default
new load.carga37.txt phases=3 conn=wye bus1=b kw=59.02 pf=0.91 kv=0.38 daily=default
new load.carga38.txt phases=3 conn=wye bus1=b kw=54.23 pf=0.82 kv=0.38 daily=default
new load.carga39.txt phases=3 conn=wye bus1=b kw=56.80 pf=0.85 kv=0.38 daily=default
new load.carga40.txt phases=3 conn=wye bus1=b kw=52.00 pf=0.81 kv=0.38 daily=default
new load.carga41.txt phases=3 conn=wye bus1=b kw=50.14 pf=0.96 kv=0.38 daily=default
new load.carga42.txt phases=3 conn=wye bus1=b kw=58.98 pf=0.83 kv=0.38 daily=default
new load.carga43.txt phases=3 conn=wye bus1=b kw=57.21 pf=0.93 kv=0.38 daily=default
new load.carga44.txt phases=3 conn=wye bus1=b kw=58.71 pf=0.91 kv=0.38 daily=default
new load.carga45.txt phases=3 conn=wye bus1=b kw=59.64 pf=0.87 kv=0.38 daily=default
new load.carga46.txt phases=3 conn=wye bus1=b kw=50.84 pf=0.82 kv=0.38 daily=default
new load.carga47.txt phases=3 conn=wye bus1=b kw=53.80 pf=0.91 kv=0.38 daily=default
new load.carga48.txt phases=3 conn=wye bus1=b kw=55.89 pf=0.97 kv=0.38 daily=default
new load.carga49.txt phases=3 conn=wye bus1=b kw=52.74 pf=0.86 kv=0.38 daily=default
new load.carga50.txt phases=3 conn=wye bus1=b kw=52.51 pf=0.97 kv=0.38 daily=default
new load.carga51.txt phases=3 conn=wye bus1=b kw=58.91 pf=0.81 kv=0.38 daily=default
new load.carga52.txt phases=3 conn=wye bus1=b kw=52.97 pf=0.99 kv=0.38 daily=default
new load.carga53.txt phases=3 conn=wye bus1=b kw=59.04 pf=0.94 kv=0.38 daily=default
new load.carga54.txt phases=3 conn=wye bus1=b kw=50.46 pf=0.85 kv=0.38 daily=default
new load.carga55.txt phases=3 conn=wye bus1=b kw=55.41 pf=0.87 kv=0.38 daily=default
new load.carga56.txt phases=3 conn=wye bus1=b kw=58.18 pf=0.87 kv=0.38 daily=default
new load.carga57.txt phases=3 conn=wye bus1=b kw=58.97 pf=0.91 kv=0.38 daily=default
new load.carga58.txt phases=3 conn=wye bus1=b kw=55.41 pf=0.84 kv=0.38 daily=default
new load.carga59.txt phases=3 conn=wye bus1=b kw=59.71 pf=0.87 kv=0.38 daily=default
new load.carga60.txt phases=3 conn=wye bus1=b kw=53.62 pf=0.93 kv=0.38 daily=default
new load.carga61.txt phases=3 conn=wye bus1=b kw=55.01 pf=0.91 kv=0.38 daily=default
new load.carga62.txt phases=3 conn=wye bus1=b kw=52.72 pf=0.81 kv=0.38 daily=default
new load.carga63.txt phases=3 conn=wye bus1=b kw=57.71 pf=0.98 kv=0.38 daily=default
new load.carga64.txt phases=3 conn=wye bus1=b kw=55.59 pf=0.85 kv=0.38 daily=default
new load.carga65.txt phases=3 conn=wye bus1=b kw=58.85 pf=0.81 kv=0.38 daily=default
new load.carga66.txt phases=3 conn=wye bus1=b kw=58.67 pf=0.88 kv=0.38 daily=default
new load.carga67.txt phases=3 conn=wye bus1=b kw=54.52 pf=0.98 kv=0.38 daily=default
new load.carga68.txt phases=3 conn=wye bus1=b kw=54.92 pf=0.84 kv=0.38 daily=default
new load.carga69.txt phases=3 conn=wye bus1=b kw=50.51 pf=0.84 kv=0.38 daily=default
new load.carga70.txt phases=3 conn=wye bus1=b kw=53.15 pf=0.83 kv=0.38 daily=default
new load.carga71.txt phases=3 conn=wye bus1=b kw=56.62 pf=0.82 kv=0.38 daily=default
new load.carga72.txt phases=3 conn=wye bus1=b kw=50.73 pf=0.99 kv=0.38 daily=default
new load.carga73.txt phases=3 conn=wye bus1=b kw=51.46 pf=0.83 kv=0.38 daily=default
new load.carga74.txt phases=3 conn=wye bus1=b kw=57.83 pf=0.94 kv=0.38 daily=default
new load.carga75.txt phases=3 conn=wye bus1=b kw=58.25 pf=0.90 kv=0.38 daily=default
new load.carga76.txt phases=3 conn=wye bus1=b kw=51.77 pf=0.93 kv=0.38 daily=default
new load.carga77.txt phases=3 conn=wye bus1=b kw=52.38 pf=1.00 kv=0.38 daily=default
new load.carga78.txt phases=3 conn=wye bus1=b kw=53.46 pf=0.83 kv=0.38 daily=default
new load.carga79.txt phases=3 conn=wye bus1=b kw=52.26 pf=0.97 kv=0.38 daily=default
new load.carga80.txt phases=3 conn=wye bus1=b kw=58.17 pf=0.90 kv=0.38 daily=default
new load.carga81.txt phases=3 conn=wye bus1=b kw=56.80 pf=0.84 kv=0.38 daily=default
new load.carga82.txt phases=3 conn=wye bus1=b kw=58.83 pf=0.88 kv=0.38 daily=default
new load.carga83.txt phases=3 conn=wye bus1=b kw=56.85 pf=0.95 kv=0.38 daily=default
new load.carga84.txt phases=3 conn=wye bus1=b kw=57.94 pf=0.92 kv=0.38 daily=default
new load.carga85.txt phases=3 conn=wye bus1=b kw=50.38 pf=0.97 kv=0.38 daily=default
new load.carga86.txt phases=3 conn=wye bus1=b kw=51.80 pf=0.89 kv=0.38 daily=default
new load.carga87.txt phases=3 conn=wye bus1=b kw=58.61 pf=0.95 kv=0.38 daily=default
new load.carga88.txt phases=3 conn=wye bus1=b kw=57.18 pf=0.85 kv=0.38 daily=default
new load.carga89.txt phases=3 conn=wye bus1=b kw=53.24 pf=1.00 kv=0.38 daily=default
new load.carga90.txt phases=3 conn=wye bus1=b kw=58.86 pf=0.95 kv=0.38 daily=default
new load.carga91.txt phases=3 conn=wye bus1=b kw=52.86 pf=0.92 kv=0.38 daily=default
new load.carga92.txt phases=3 conn=wye bus1=b kw=53.46 pf=0.99 kv=0.38 daily=default
new load.carga93.txt phases=3 conn=wye bus1=b kw=55.37 pf=0.85 kv=0.38 daily=default
new load.carga94.txt phases=3 conn=wye bus1=b kw=53.56 pf=0.80 kv=0.38 daily=default
new load.carga95.txt phases=3 conn=wye bus1=b kw=53.17 pf=0.81 kv=0.38 daily=default
new load.carga96.txt phases=3 conn=wye bus1=b kw=57.58 pf=1.00 kv=0.38 daily=default
new load.carga97.txt phases=3 conn=wye bus1=b kw=52.65 pf=0.91 kv=0.38 daily=default
new load.carga98.txt phases=3 conn=wye bus1=b kw=59.53 pf=0.99 kv=0.38 daily=default
new load.carga99.txt phases=3 conn=wye bus1=b kw=55.76 pf=0.87 kv=0.38 daily=default
new load.carga100.txt phases=3 conn=wye bus1=b kw=56.41 pf=0.97 kv=0.38 daily=default
