new load.carga1 phases=3 conn=wye bus1=c1 kw=58.07 pf=0.96 kv=0.38 daily=semana
new load.carga2 phases=3 conn=wye bus1=c2 kw=59.70 pf=0.99 kv=0.38 daily=semana
new load.carga3 phases=3 conn=wye bus1=c3 kw=58.84 pf=0.89 kv=0.38 daily=semana
new load.carga4 phases=3 conn=wye bus1=c4 kw=55.54 pf=0.88 kv=0.38 daily=semana
new load.carga5 phases=3 conn=wye bus1=c5 kw=58.09 pf=0.80 kv=0.38 daily=semana
new load.carga6 phases=3 conn=wye bus1=c6 kw=58.24 pf=0.85 kv=0.38 daily=semana
new load.carga7 phases=3 conn=wye bus1=c7 kw=58.72 pf=0.83 kv=0.38 daily=semana
new load.carga8 phases=3 conn=wye bus1=c8 kw=50.01 pf=0.88 kv=0.38 daily=semana
new load.carga9 phases=3 conn=wye bus1=c9 kw=52.73 pf=0.88 kv=0.38 daily=semana
new load.carga10 phases=3 conn=wye bus1=c10 kw=56.81 pf=0.99 kv=0.38 daily=semana
new load.carga11 phases=3 conn=wye bus1=c11 kw=53.18 pf=1.00 kv=0.38 daily=semana
new load.carga12 phases=3 conn=wye bus1=c12 kw=59.24 pf=0.88 kv=0.38 daily=semana
new load.carga13 phases=3 conn=wye bus1=c13 kw=51.36 pf=0.98 kv=0.38 daily=semana
new load.carga14 phases=3 conn=wye bus1=c14 kw=57.96 pf=0.94 kv=0.38 daily=semana
new load.carga15 phases=3 conn=wye bus1=c15 kw=58.08 pf=0.98 kv=0.38 daily=semana
new load.carga16 phases=3 conn=wye bus1=c16 kw=50.69 pf=0.99 kv=0.38 daily=semana
new load.carga17 phases=3 conn=wye bus1=c17 kw=53.15 pf=0.97 kv=0.38 daily=semana
new load.carga18 phases=3 conn=wye bus1=c18 kw=53.09 pf=0.80 kv=0.38 daily=semana
new load.carga19 phases=3 conn=wye bus1=c19 kw=54.67 pf=0.82 kv=0.38 daily=semana
new load.carga20 phases=3 conn=wye bus1=c20 kw=58.60 pf=0.91 kv=0.38 daily=semana
new load.carga21 phases=3 conn=wye bus1=c21 kw=59.85 pf=0.86 kv=0.38 daily=semana
new load.carga22 phases=3 conn=wye bus1=c22 kw=56.61 pf=0.99 kv=0.38 daily=semana
new load.carga23 phases=3 conn=wye bus1=c23 kw=50.49 pf=0.97 kv=0.38 daily=semana
new load.carga24 phases=3 conn=wye bus1=c24 kw=57.28 pf=0.92 kv=0.38 daily=semana
new load.carga25 phases=3 conn=wye bus1=c25 kw=50.10 pf=0.88 kv=0.38 daily=semana
new load.carga26 phases=3 conn=wye bus1=c26 kw=56.15 pf=0.99 kv=0.38 daily=semana
new load.carga27 phases=3 conn=wye bus1=c27 kw=51.99 pf=0.87 kv=0.38 daily=semana
new load.carga28 phases=3 conn=wye bus1=c28 kw=58.98 pf=0.85 kv=0.38 daily=semana
new load.carga29 phases=3 conn=wye bus1=c29 kw=58.44 pf=0.86 kv=0.38 daily=semana
new load.carga30 phases=3 conn=wye bus1=c30 kw=52.57 pf=0.93 kv=0.38 daily=semana
new load.carga31 phases=3 conn=wye bus1=c31 kw=52.83 pf=0.95 kv=0.38 daily=semana
new load.carga32 phases=3 conn=wye bus1=c32 kw=50.96 pf=0.99 kv=0.38 daily=semana
new load.carga33 phases=3 conn=wye bus1=c33 kw=50.47 pf=0.94 kv=0.38 daily=semana
new load.carga34 phases=3 conn=wye bus1=c34 kw=58.78 pf=0.90 kv=0.38 daily=semana
new load.carga35 phases=3 conn=wye bus1=c35 kw=52.09 pf=0.87 kv=0.38 daily=semana
new load.carga36 phases=3 conn=wye bus1=c36 kw=54.36 pf=0.84 kv=0.38 daily=semana
new load.carga37 phases=3 conn=wye bus1=c37 kw=53.88 pf=0.82 kv=0.38 daily=semana
new load.carga38 phases=3 conn=wye bus1=c38 kw=57.80 pf=0.92 kv=0.38 daily=semana
new load.carga39 phases=3 conn=wye bus1=c39 kw=54.42 pf=0.92 kv=0.38 daily=semana
new load.carga40 phases=3 conn=wye bus1=c40 kw=55.06 pf=1.00 kv=0.38 daily=semana
new load.carga41 phases=3 conn=wye bus1=c41 kw=53.95 pf=0.98 kv=0.38 daily=semana
new load.carga42 phases=3 conn=wye bus1=c42 kw=56.50 pf=0.82 kv=0.38 daily=semana
new load.carga43 phases=3 conn=wye bus1=c43 kw=51.77 pf=0.98 kv=0.38 daily=semana
new load.carga44 phases=3 conn=wye bus1=c44 kw=56.56 pf=0.96 kv=0.38 daily=semana
new load.carga45 phases=3 conn=wye bus1=c45 kw=53.17 pf=0.96 kv=0.38 daily=semana
new load.carga46 phases=3 conn=wye bus1=c46 kw=54.07 pf=0.91 kv=0.38 daily=semana
new load.carga47 phases=3 conn=wye bus1=c47 kw=57.70 pf=0.82 kv=0.38 daily=semana
new load.carga48 phases=3 conn=wye bus1=c48 kw=54.80 pf=0.89 kv=0.38 daily=semana
new load.carga49 phases=3 conn=wye bus1=c49 kw=51.37 pf=0.93 kv=0.38 daily=semana
new load.carga50 phases=3 conn=wye bus1=c50 kw=50.80 pf=0.87 kv=0.38 daily=semana
new load.carga51 phases=3 conn=wye bus1=c51 kw=56.48 pf=0.92 kv=0.38 daily=semana
new load.carga52 phases=3 conn=wye bus1=c52 kw=54.87 pf=0.99 kv=0.38 daily=semana
new load.carga53 phases=3 conn=wye bus1=c53 kw=53.03 pf=0.87 kv=0.38 daily=semana
new load.carga54 phases=3 conn=wye bus1=c54 kw=53.81 pf=0.94 kv=0.38 daily=semana
new load.carga55 phases=3 conn=wye bus1=c55 kw=56.03 pf=0.99 kv=0.38 daily=semana
new load.carga56 phases=3 conn=wye bus1=c56 kw=58.31 pf=0.88 kv=0.38 daily=semana
new load.carga57 phases=3 conn=wye bus1=c57 kw=55.45 pf=0.86 kv=0.38 daily=semana
new load.carga58 phases=3 conn=wye bus1=c58 kw=50.71 pf=0.82 kv=0.38 daily=semana
new load.carga59 phases=3 conn=wye bus1=c59 kw=59.99 pf=0.94 kv=0.38 daily=semana
new load.carga60 phases=3 conn=wye bus1=c60 kw=53.34 pf=0.82 kv=0.38 daily=semana
new load.carga61 phases=3 conn=wye bus1=c61 kw=54.35 pf=0.81 kv=0.38 daily=semana
new load.carga62 phases=3 conn=wye bus1=c62 kw=51.53 pf=0.81 kv=0.38 daily=semana
new load.carga63 phases=3 conn=wye bus1=c63 kw=53.62 pf=0.83 kv=0.38 daily=semana
new load.carga64 phases=3 conn=wye bus1=c64 kw=50.66 pf=0.86 kv=0.38 daily=semana
new load.carga65 phases=3 conn=wye bus1=c65 kw=57.93 pf=0.94 kv=0.38 daily=semana
new load.carga66 phases=3 conn=wye bus1=c66 kw=57.04 pf=0.97 kv=0.38 daily=semana
new load.carga67 phases=3 conn=wye bus1=c67 kw=58.11 pf=0.80 kv=0.38 daily=semana
new load.carga68 phases=3 conn=wye bus1=c68 kw=59.16 pf=0.90 kv=0.38 daily=semana
new load.carga69 phases=3 conn=wye bus1=c69 kw=50.28 pf=0.81 kv=0.38 daily=semana
new load.carga70 phases=3 conn=wye bus1=c70 kw=52.80 pf=0.89 kv=0.38 daily=semana
new load.carga71 phases=3 conn=wye bus1=c71 kw=52.14 pf=0.90 kv=0.38 daily=semana
new load.carga72 phases=3 conn=wye bus1=c72 kw=55.35 pf=0.87 kv=0.38 daily=semana
new load.carga73 phases=3 conn=wye bus1=c73 kw=58.57 pf=0.98 kv=0.38 daily=semana
new load.carga74 phases=3 conn=wye bus1=c74 kw=56.15 pf=0.82 kv=0.38 daily=semana
new load.carga75 phases=3 conn=wye bus1=c75 kw=51.62 pf=0.88 kv=0.38 daily=semana
new load.carga76 phases=3 conn=wye bus1=c76 kw=53.46 pf=0.92 kv=0.38 daily=semana
new load.carga77 phases=3 conn=wye bus1=c77 kw=52.47 pf=0.87 kv=0.38 daily=semana
new load.carga78 phases=3 conn=wye bus1=c78 kw=51.65 pf=0.99 kv=0.38 daily=semana
new load.carga79 phases=3 conn=wye bus1=c79 kw=50.25 pf=0.88 kv=0.38 daily=semana
new load.carga80 phases=3 conn=wye bus1=c80 kw=53.86 pf=0.81 kv=0.38 daily=semana
new load.carga81 phases=3 conn=wye bus1=c81 kw=52.66 pf=0.92 kv=0.38 daily=semana
new load.carga82 phases=3 conn=wye bus1=c82 kw=58.34 pf=0.89 kv=0.38 daily=semana
new load.carga83 phases=3 conn=wye bus1=c83 kw=58.31 pf=0.84 kv=0.38 daily=semana
new load.carga84 phases=3 conn=wye bus1=c84 kw=52.65 pf=0.99 kv=0.38 daily=semana
new load.carga85 phases=3 conn=wye bus1=c85 kw=58.72 pf=0.82 kv=0.38 daily=semana
new load.carga86 phases=3 conn=wye bus1=c86 kw=51.07 pf=0.98 kv=0.38 daily=semana
new load.carga87 phases=3 conn=wye bus1=c87 kw=59.61 pf=0.88 kv=0.38 daily=semana
new load.carga88 phases=3 conn=wye bus1=c88 kw=52.53 pf=0.88 kv=0.38 daily=semana
new load.carga89 phases=3 conn=wye bus1=c89 kw=51.21 pf=0.98 kv=0.38 daily=semana
new load.carga90 phases=3 conn=wye bus1=c90 kw=53.95 pf=0.83 kv=0.38 daily=semana
new load.carga91 phases=3 conn=wye bus1=c91 kw=53.82 pf=0.86 kv=0.38 daily=semana
new load.carga92 phases=3 conn=wye bus1=c92 kw=53.51 pf=0.81 kv=0.38 daily=semana
new load.carga93 phases=3 conn=wye bus1=c93 kw=59.27 pf=0.81 kv=0.38 daily=semana
new load.carga94 phases=3 conn=wye bus1=c94 kw=59.82 pf=0.81 kv=0.38 daily=semana
new load.carga95 phases=3 conn=wye bus1=c95 kw=58.23 pf=0.92 kv=0.38 daily=semana
new load.carga96 phases=3 conn=wye bus1=c96 kw=55.91 pf=0.92 kv=0.38 daily=semana
new load.carga97 phases=3 conn=wye bus1=c97 kw=50.53 pf=0.83 kv=0.38 daily=semana
new load.carga98 phases=3 conn=wye bus1=c98 kw=57.63 pf=0.88 kv=0.38 daily=semana
new load.carga99 phases=3 conn=wye bus1=c99 kw=56.35 pf=0.92 kv=0.38 daily=semana
new load.carga100 phases=3 conn=wye bus1=c100 kw=57.72 pf=0.99 kv=0.38 daily=semana
