new load.carga7.txt phases=3 conn=wye bus1=b kw=48.51 pf=0.91 kv=0.22 daily=default