new circuit.fonte bus1=a basekv=0.22 phases=3