new line.linha1 bus1=a bus2=b phases=3 length=0.5 units=km linecode=arranjo
        new line.linha2 bus1=b bus2=c phases=3 length=0.01 units=km linecode=arranjo