new line.linha2 bus1=b bus2=c1 phases=3 length=0.01 units=km linecode=arranjo
new line.linha3 bus1=b bus2=c2 phases=3 length=0.01 units=km linecode=arranjo
new line.linha4 bus1=b bus2=c3 phases=3 length=0.01 units=km linecode=arranjo
new line.linha5 bus1=b bus2=c4 phases=3 length=0.01 units=km linecode=arranjo
new line.linha6 bus1=b bus2=c5 phases=3 length=0.01 units=km linecode=arranjo
new line.linha7 bus1=b bus2=c6 phases=3 length=0.01 units=km linecode=arranjo
new line.linha8 bus1=b bus2=c7 phases=3 length=0.01 units=km linecode=arranjo
new line.linha9 bus1=b bus2=c8 phases=3 length=0.01 units=km linecode=arranjo
new line.linha10 bus1=b bus2=c9 phases=3 length=0.01 units=km linecode=arranjo
new line.linha11 bus1=b bus2=c10 phases=3 length=0.01 units=km linecode=arranjo
new line.linha12 bus1=b bus2=c11 phases=3 length=0.01 units=km linecode=arranjo
new line.linha13 bus1=b bus2=c12 phases=3 length=0.01 units=km linecode=arranjo
new line.linha14 bus1=b bus2=c13 phases=3 length=0.01 units=km linecode=arranjo
new line.linha15 bus1=b bus2=c14 phases=3 length=0.01 units=km linecode=arranjo
new line.linha16 bus1=b bus2=c15 phases=3 length=0.01 units=km linecode=arranjo
new line.linha17 bus1=b bus2=c16 phases=3 length=0.01 units=km linecode=arranjo
new line.linha18 bus1=b bus2=c17 phases=3 length=0.01 units=km linecode=arranjo
new line.linha19 bus1=b bus2=c18 phases=3 length=0.01 units=km linecode=arranjo
new line.linha20 bus1=b bus2=c19 phases=3 length=0.01 units=km linecode=arranjo
new line.linha21 bus1=b bus2=c20 phases=3 length=0.01 units=km linecode=arranjo
new line.linha22 bus1=b bus2=c21 phases=3 length=0.01 units=km linecode=arranjo
new line.linha23 bus1=b bus2=c22 phases=3 length=0.01 units=km linecode=arranjo
new line.linha24 bus1=b bus2=c23 phases=3 length=0.01 units=km linecode=arranjo
new line.linha25 bus1=b bus2=c24 phases=3 length=0.01 units=km linecode=arranjo
new line.linha26 bus1=b bus2=c25 phases=3 length=0.01 units=km linecode=arranjo
new line.linha27 bus1=b bus2=c26 phases=3 length=0.01 units=km linecode=arranjo
new line.linha28 bus1=b bus2=c27 phases=3 length=0.01 units=km linecode=arranjo
new line.linha29 bus1=b bus2=c28 phases=3 length=0.01 units=km linecode=arranjo
new line.linha30 bus1=b bus2=c29 phases=3 length=0.01 units=km linecode=arranjo
new line.linha31 bus1=b bus2=c30 phases=3 length=0.01 units=km linecode=arranjo
new line.linha32 bus1=b bus2=c31 phases=3 length=0.01 units=km linecode=arranjo
new line.linha33 bus1=b bus2=c32 phases=3 length=0.01 units=km linecode=arranjo
new line.linha34 bus1=b bus2=c33 phases=3 length=0.01 units=km linecode=arranjo
new line.linha35 bus1=b bus2=c34 phases=3 length=0.01 units=km linecode=arranjo
new line.linha36 bus1=b bus2=c35 phases=3 length=0.01 units=km linecode=arranjo
new line.linha37 bus1=b bus2=c36 phases=3 length=0.01 units=km linecode=arranjo
new line.linha38 bus1=b bus2=c37 phases=3 length=0.01 units=km linecode=arranjo
new line.linha39 bus1=b bus2=c38 phases=3 length=0.01 units=km linecode=arranjo
new line.linha40 bus1=b bus2=c39 phases=3 length=0.01 units=km linecode=arranjo
new line.linha41 bus1=b bus2=c40 phases=3 length=0.01 units=km linecode=arranjo
new line.linha42 bus1=b bus2=c41 phases=3 length=0.01 units=km linecode=arranjo
new line.linha43 bus1=b bus2=c42 phases=3 length=0.01 units=km linecode=arranjo
new line.linha44 bus1=b bus2=c43 phases=3 length=0.01 units=km linecode=arranjo
new line.linha45 bus1=b bus2=c44 phases=3 length=0.01 units=km linecode=arranjo
new line.linha46 bus1=b bus2=c45 phases=3 length=0.01 units=km linecode=arranjo
new line.linha47 bus1=b bus2=c46 phases=3 length=0.01 units=km linecode=arranjo
new line.linha48 bus1=b bus2=c47 phases=3 length=0.01 units=km linecode=arranjo
new line.linha49 bus1=b bus2=c48 phases=3 length=0.01 units=km linecode=arranjo
new line.linha50 bus1=b bus2=c49 phases=3 length=0.01 units=km linecode=arranjo
new line.linha51 bus1=b bus2=c50 phases=3 length=0.01 units=km linecode=arranjo
new line.linha52 bus1=b bus2=c51 phases=3 length=0.01 units=km linecode=arranjo
new line.linha53 bus1=b bus2=c52 phases=3 length=0.01 units=km linecode=arranjo
new line.linha54 bus1=b bus2=c53 phases=3 length=0.01 units=km linecode=arranjo
new line.linha55 bus1=b bus2=c54 phases=3 length=0.01 units=km linecode=arranjo
new line.linha56 bus1=b bus2=c55 phases=3 length=0.01 units=km linecode=arranjo
new line.linha57 bus1=b bus2=c56 phases=3 length=0.01 units=km linecode=arranjo
new line.linha58 bus1=b bus2=c57 phases=3 length=0.01 units=km linecode=arranjo
new line.linha59 bus1=b bus2=c58 phases=3 length=0.01 units=km linecode=arranjo
new line.linha60 bus1=b bus2=c59 phases=3 length=0.01 units=km linecode=arranjo
new line.linha61 bus1=b bus2=c60 phases=3 length=0.01 units=km linecode=arranjo
new line.linha62 bus1=b bus2=c61 phases=3 length=0.01 units=km linecode=arranjo
new line.linha63 bus1=b bus2=c62 phases=3 length=0.01 units=km linecode=arranjo
new line.linha64 bus1=b bus2=c63 phases=3 length=0.01 units=km linecode=arranjo
new line.linha65 bus1=b bus2=c64 phases=3 length=0.01 units=km linecode=arranjo
new line.linha66 bus1=b bus2=c65 phases=3 length=0.01 units=km linecode=arranjo
new line.linha67 bus1=b bus2=c66 phases=3 length=0.01 units=km linecode=arranjo
new line.linha68 bus1=b bus2=c67 phases=3 length=0.01 units=km linecode=arranjo
new line.linha69 bus1=b bus2=c68 phases=3 length=0.01 units=km linecode=arranjo
new line.linha70 bus1=b bus2=c69 phases=3 length=0.01 units=km linecode=arranjo
new line.linha71 bus1=b bus2=c70 phases=3 length=0.01 units=km linecode=arranjo
new line.linha72 bus1=b bus2=c71 phases=3 length=0.01 units=km linecode=arranjo
new line.linha73 bus1=b bus2=c72 phases=3 length=0.01 units=km linecode=arranjo
new line.linha74 bus1=b bus2=c73 phases=3 length=0.01 units=km linecode=arranjo
new line.linha75 bus1=b bus2=c74 phases=3 length=0.01 units=km linecode=arranjo
new line.linha76 bus1=b bus2=c75 phases=3 length=0.01 units=km linecode=arranjo
new line.linha77 bus1=b bus2=c76 phases=3 length=0.01 units=km linecode=arranjo
new line.linha78 bus1=b bus2=c77 phases=3 length=0.01 units=km linecode=arranjo
new line.linha79 bus1=b bus2=c78 phases=3 length=0.01 units=km linecode=arranjo
new line.linha80 bus1=b bus2=c79 phases=3 length=0.01 units=km linecode=arranjo
new line.linha81 bus1=b bus2=c80 phases=3 length=0.01 units=km linecode=arranjo
new line.linha82 bus1=b bus2=c81 phases=3 length=0.01 units=km linecode=arranjo
new line.linha83 bus1=b bus2=c82 phases=3 length=0.01 units=km linecode=arranjo
new line.linha84 bus1=b bus2=c83 phases=3 length=0.01 units=km linecode=arranjo
new line.linha85 bus1=b bus2=c84 phases=3 length=0.01 units=km linecode=arranjo
new line.linha86 bus1=b bus2=c85 phases=3 length=0.01 units=km linecode=arranjo
new line.linha87 bus1=b bus2=c86 phases=3 length=0.01 units=km linecode=arranjo
new line.linha88 bus1=b bus2=c87 phases=3 length=0.01 units=km linecode=arranjo
new line.linha89 bus1=b bus2=c88 phases=3 length=0.01 units=km linecode=arranjo
new line.linha90 bus1=b bus2=c89 phases=3 length=0.01 units=km linecode=arranjo
new line.linha91 bus1=b bus2=c90 phases=3 length=0.01 units=km linecode=arranjo
new line.linha92 bus1=b bus2=c91 phases=3 length=0.01 units=km linecode=arranjo
new line.linha93 bus1=b bus2=c92 phases=3 length=0.01 units=km linecode=arranjo
new line.linha94 bus1=b bus2=c93 phases=3 length=0.01 units=km linecode=arranjo
new line.linha95 bus1=b bus2=c94 phases=3 length=0.01 units=km linecode=arranjo
new line.linha96 bus1=b bus2=c95 phases=3 length=0.01 units=km linecode=arranjo
new line.linha97 bus1=b bus2=c96 phases=3 length=0.01 units=km linecode=arranjo
new line.linha98 bus1=b bus2=c97 phases=3 length=0.01 units=km linecode=arranjo
new line.linha99 bus1=b bus2=c98 phases=3 length=0.01 units=km linecode=arranjo
new line.linha100 bus1=b bus2=c99 phases=3 length=0.01 units=km linecode=arranjo
