new loadshape.semana
    new loadshape.storagecurve npts=24 interval=1 
    mult=(0 0 0 0 0 0 0 0  0 -1 -1 -1 -1  -1 -1 0  0  1   1   1    1  1 0  0 0)