new linecode.arranjo rmatrix=(0.02 | 0.02 0.04 | 0.02 0.04 0.06) xmatrix=(0.48 | 0.48 0.6 | 0.48 0.6 0.69) cmatrix=(-2.51 | 0.69 4.1 | -0.51 0.69 4.1)